<?xml version="1.0" encoding="UTF-8"?>

<!-- generated on Fri 24 Jul 2020 08:15:29 PM CEST by Eclipse SUMO netedit Version 1.6.0
<configuration xmlns:xsi="http://www.w3.org/2001/XMLSchema-instance" xsi:noNamespaceSchemaLocation="http://sumo.dlr.de/xsd/netconvertConfiguration.xsd">

    <input>
        <sumo-net-file value="/home/vishal/Downloads/Work/RL/sumo-rl-practice/helloWorld.net.xml"/>
    </input>

    <output>
        <output-file value="/home/vishal/Downloads/Work/RL/sumo-rl-practice/helloWorld.net.xml"/>
    </output>

    <processing>
        <geometry.min-radius.fix.railways value="false"/>
        <geometry.max-grade.fix value="false"/>
        <offset.disable-normalization value="true"/>
        <lefthand value="false"/>
    </processing>

    <junctions>
        <no-turnarounds value="true"/>
        <junctions.corner-detail value="5"/>
        <junctions.limit-turn-speed value="5.5"/>
        <rectangular-lane-cut value="false"/>
    </junctions>

    <pedestrian>
        <walkingareas value="false"/>
    </pedestrian>

    <netedit>
        <route-files value="/home/vishal/Downloads/Work/RL/sumo-rl-practice/helloWorld.rou.xml"/>
    </netedit>

    <report>
        <aggregate-warnings value="5"/>
    </report>

</configuration>
-->

<routes xmlns:xsi="http://www.w3.org/2001/XMLSchema-instance" xsi:noNamespaceSchemaLocation="http://sumo.dlr.de/xsd/routes_file.xsd">
    <route edges="1to2 2to3" color="139,131,120" id="route_0"/>
    <vehicle id="vehicle_0" depart="0.00" color="red" route="route_0"/>
</routes>
